29
Properties=species:S:1:pos:R:3 name=C11H9ClFN5O2_4ff363652e419d68d992f430ce225e7e mapped_smiles="[C:1]1([H:21])([H:22])[C:2]([H:23])([H:24])[N:3]([C:15](=[O:16])[C:17]([N:18]=[N+:19]=[N-:20])([H:28])[H:29])[C:4](=[O:5])[N:6]1[c:7]1[c:8]([H:25])[c:9]([Cl:14])[c:10]([F:13])[c:11]([H:26])[c:12]1[H:27]" pbc="F F F"
C       -0.23378826       1.13568549      -0.81579422
C        1.06101824       0.69417377      -1.46249570
N        1.55538672      -0.35979946      -0.60816481
C        0.50438701      -0.83717723       0.21363566
O        0.55447962      -1.82099098       0.93403324
N       -0.60984568       0.02748835       0.02809711
C       -1.87276597      -0.05671860       0.67739513
C       -2.81708957       0.97520114       0.53344637
C       -4.06579478       0.90323805       1.16209314
C       -4.39092535      -0.19931418       1.94148350
C       -3.47861715      -1.23176061       2.09803123
C       -2.22953230      -1.15942712       1.46877943
F       -5.58231339      -0.28684490       2.54998830
Cl      -5.18765993       2.19454055       0.95648949
C        2.80391910      -0.94920684      -0.69246952
O        3.27418544      -1.70980617       0.15343251
C        3.67125010      -0.54178207      -1.87907150
N        4.31195288       0.74959658      -1.59192614
N        5.31769712       0.69296502      -0.85681670
N        6.24349056       0.65658421      -0.19489839
H       -0.07269577       2.01553717      -0.18248125
H       -0.99465734       1.35148162      -1.57211649
H        0.87650653       0.26749839      -2.45504950
H        1.77796433       1.51334128      -1.55905344
H       -2.60156478       1.85896313      -0.05841993
H       -3.73727804      -2.09284052       2.70727796
H       -1.55698229      -1.99992852       1.61695119
H        4.41357536      -1.32736275      -2.06746750
H        3.06569759      -0.46333479      -2.78660920
