31
Properties=species:S:1:pos:R:3 name=C15H11N3O2_8135644ee9a87730e6fb86d9ebacf6c8 mapped_smiles="[C:1]([O:2][c:3]1[c:4]([H:24])[c:5]2[c:6]([c:7]([H:25])[c:8]1[H:26])[O:9][C:10]([N:20]([H:30])[H:31])=[C:11]([C:18]#[C:19][H:29])[C@@:12]2([C:13]([C:14]#[N:15])([C:16]#[N:17])[H:28])[H:27])([H:21])([H:22])[H:23]" pbc="F F F"
C        4.94306101      -1.18996037      -0.39713972
O        3.60531962      -1.40104992      -0.83345558
C        2.64879361      -0.57289062      -0.31553985
C        1.35690363      -0.80533413      -0.79977949
C        0.26886845      -0.03974637      -0.35119721
C        0.49960820       0.98222238       0.56690220
C        1.78132342       1.21449762       1.06231934
C        2.85642259       0.43680259       0.62330467
O       -0.50222636       1.80052232       1.02099837
C       -1.70798121       1.83469158       0.33228906
C       -2.06302079       0.87144970      -0.54784848
C       -1.14649981      -0.31518327      -0.82530889
C       -1.66278757      -1.66108282      -0.24176751
C       -2.76314422      -2.20392154      -1.05568006
N       -3.60345242      -2.65218491      -1.71965508
C       -2.03467724      -1.55557700       1.17919678
N       -2.31640792      -1.48350616       2.30328931
C       -3.30141816       0.95785366      -1.26112247
C       -4.33823776       1.01543442      -1.86355286
N       -2.48697983       2.91908586       0.67190128
H        5.58042703      -1.91610939      -0.91082109
H        5.03854925      -1.36560187       0.67943338
H        5.29350825      -0.18847838      -0.66793177
H        1.21416549      -1.59429800      -1.53602645
H        1.94672485       2.00993970       1.78483012
H        3.83944059       0.65066822       1.02963679
H       -1.07241671      -0.40637616      -1.92072936
H       -0.85562869      -2.40449972      -0.30288082
H       -5.25728869       1.05720866      -2.40173529
H       -3.48068094       2.76926784       0.52000797
H       -2.28026768       3.23615608       1.61556242
